Version 4
SHEET 1 1732 816
WIRE -32 80 -112 80
WIRE 144 80 -32 80
WIRE 16 144 -112 144
WIRE 128 144 16 144
WIRE 176 176 144 176
WIRE -48 208 -112 208
WIRE 112 208 -48 208
WIRE 176 208 128 208
WIRE 176 240 112 240
WIRE 0 272 -112 272
WIRE 176 272 0 272
WIRE 352 288 320 288
WIRE 48 304 -64 304
WIRE 176 304 48 304
WIRE 352 320 320 320
WIRE -64 336 -112 336
WIRE 48 336 -48 336
WIRE 176 336 48 336
WIRE 352 352 320 352
WIRE 32 368 -32 368
WIRE 176 368 32 368
WIRE 352 384 320 384
WIRE -48 400 -112 400
WIRE 32 400 0 400
WIRE 176 400 32 400
WIRE 64 432 32 432
WIRE 176 432 64 432
WIRE 352 432 320 432
WIRE -32 464 -112 464
WIRE 80 464 64 464
WIRE 176 464 80 464
WIRE 352 464 320 464
WIRE 176 496 128 496
WIRE 0 528 0 400
WIRE 0 528 -112 528
WIRE 32 592 -112 592
WIRE 320 608 192 608
WIRE 352 608 320 608
WIRE 64 656 -112 656
WIRE 192 656 192 608
WIRE 16 768 -112 768
WIRE 128 768 128 496
WIRE 128 768 16 768
FLAG 208 80 0
FLAG 208 0 +
FLAG 176 144 +
FLAG -192 80 0
FLAG -192 144 0
FLAG -192 208 0
FLAG -192 272 0
FLAG -192 336 0
FLAG -192 400 0
FLAG -192 464 0
FLAG -192 528 0
FLAG -192 592 0
FLAG -192 656 0
FLAG -192 768 0
FLAG 192 736 0
FLAG 320 608 PULSE
FLAG 352 288 D0
FLAG 352 320 D1
FLAG 352 352 D2
FLAG 352 384 D3
FLAG 352 464 STB
FLAG -32 80 key0
FLAG 16 144 key1
FLAG -48 208 key2
FLAG 0 272 key3
FLAG 48 304 key4
FLAG 48 336 key5
FLAG 32 368 key6
FLAG 32 400 key7
FLAG 64 432 key8
FLAG 80 464 key9
FLAG 16 768 keyx
FLAG 352 432 AKD
SYMBOL voltage 208 -16 R0
SYMATTR InstName V1
SYMATTR Value 3
SYMBOL Keyboard 240 320 R0
SYMATTR InstName X1
SYMBOL voltage -96 80 R90
WINDOW 0 -32 56 VBottom 2
WINDOW 3 -20 318 VTop 2
SYMATTR InstName V2
SYMATTR Value PULSE(0 3 0m 1m 1m 50m 100m 1)
SYMBOL voltage -96 144 R90
WINDOW 0 -32 56 VBottom 2
WINDOW 3 -17 330 VTop 2
SYMATTR InstName V3
SYMATTR Value PULSE(0 3 100m 1m 1m 50m 100m 1)
SYMBOL voltage -96 208 R90
WINDOW 0 -32 56 VBottom 2
WINDOW 3 -13 331 VTop 2
SYMATTR InstName V4
SYMATTR Value PULSE(0 3 200m 1m 1m 50m 100m 1)
SYMBOL voltage -96 272 R90
WINDOW 0 -32 56 VBottom 2
WINDOW 3 -18 330 VTop 2
SYMATTR InstName V5
SYMATTR Value PULSE(0 3 300m 1m 1m 50m 100m 1)
SYMBOL voltage -96 336 R90
WINDOW 0 -32 56 VBottom 2
WINDOW 3 -18 332 VTop 2
SYMATTR InstName V6
SYMATTR Value PULSE(0 3 400m 1m 1m 50m 100m 1)
SYMBOL voltage -96 400 R90
WINDOW 0 -32 56 VBottom 2
WINDOW 3 -21 333 VTop 2
SYMATTR InstName V7
SYMATTR Value PULSE(0 3 500m 1m 1m 50m 100m 1)
SYMBOL voltage -96 464 R90
WINDOW 0 -32 56 VBottom 2
WINDOW 3 -21 332 VTop 2
SYMATTR InstName V8
SYMATTR Value PULSE(0 3 600m 1m 1m 50m 100m 1)
SYMBOL voltage -96 528 R90
WINDOW 0 -32 56 VBottom 2
WINDOW 3 -16 332 VTop 2
SYMATTR InstName V9
SYMATTR Value PULSE(0 3 700m 1m 1m 50m 100m 1)
SYMBOL voltage -96 592 R90
WINDOW 0 -32 56 VBottom 2
WINDOW 3 -23 334 VTop 2
SYMATTR InstName V10
SYMATTR Value PULSE(0 3 800m 1m 1m 50m 100m 1)
SYMBOL voltage -96 656 R90
WINDOW 0 -32 56 VBottom 2
WINDOW 3 -16 341 VTop 2
SYMATTR InstName V11
SYMATTR Value PULSE(0 3 900m 1m 1m 50m 100m 1)
SYMBOL voltage -96 768 R90
WINDOW 0 -32 56 VBottom 2
WINDOW 3 -16 340 VTop 2
SYMATTR InstName V12
SYMATTR Value PULSE(0 3 1000m 1m 1m 50m 100m 1)
SYMBOL voltage 192 640 R0
SYMATTR InstName V13
SYMATTR Value PULSE(0 3 25m 1n 1n 1n 100m 10)
TEXT 256 32 Left 2 !.tran 999m
