Version 4
SHEET 1 880 680
WIRE 176 80 96 80
WIRE 192 80 176 80
WIRE 448 80 272 80
WIRE 752 96 720 96
WIRE 320 160 272 160
WIRE 592 160 544 160
WIRE 192 176 96 176
WIRE 464 176 400 176
WIRE 320 192 240 192
WIRE 400 192 400 176
WIRE 400 192 384 192
WIRE 592 192 512 192
WIRE 672 192 656 192
WIRE 720 192 672 192
WIRE 176 208 176 80
WIRE 192 208 176 208
WIRE 448 208 448 80
WIRE 464 208 448 208
WIRE 320 224 304 224
WIRE 592 224 576 224
WIRE 304 256 304 224
WIRE 384 256 304 256
WIRE 576 256 576 224
WIRE 656 256 576 256
WIRE 400 272 400 192
WIRE 400 272 304 272
WIRE 672 272 672 192
WIRE 672 272 576 272
WIRE 576 304 576 272
WIRE 592 304 576 304
WIRE 304 320 304 272
WIRE 320 320 304 320
WIRE 448 320 448 208
WIRE 464 320 448 320
WIRE 656 320 656 256
WIRE 656 320 640 320
WIRE 720 320 656 320
WIRE 176 336 176 208
WIRE 192 336 176 336
WIRE 384 336 384 256
WIRE 384 336 368 336
WIRE 416 336 384 336
WIRE 592 336 512 336
WIRE 320 352 240 352
WIRE 416 352 416 336
WIRE 464 352 416 352
WIRE 192 368 96 368
WIRE 272 416 272 160
WIRE 272 416 96 416
WIRE 544 416 544 160
WIRE 544 416 272 416
FLAG 224 64 +
FLAG 208 160 +
FLAG 208 320 +
FLAG 336 304 +
FLAG 336 144 +
FLAG 480 160 +
FLAG 480 304 +
FLAG 608 288 +
FLAG 608 144 +
FLAG 96 80 CLK
IOPIN 96 80 In
FLAG 96 176 J
IOPIN 96 176 In
FLAG 96 368 K
IOPIN 96 368 In
FLAG 96 416 CLR
IOPIN 96 416 In
FLAG 720 192 Q
IOPIN 720 192 Out
FLAG 720 320 /Q
IOPIN 720 320 Out
FLAG 720 96 +
IOPIN 720 96 In
FLAG 752 96 +
SYMBOL NOR2 224 192 R0
SYMATTR InstName X1
SYMBOL NOR2 224 352 R0
SYMATTR InstName X2
SYMBOL NOR2 352 336 R0
SYMATTR InstName X3
SYMBOL NOR2 496 192 R0
SYMATTR InstName X4
SYMBOL NOR2 496 336 R0
SYMATTR InstName X5
SYMBOL NOR2 624 320 R0
SYMATTR InstName X6
SYMBOL NOR3 352 192 R0
SYMATTR InstName X7
SYMBOL NOR3 624 192 R0
SYMATTR InstName X8
SYMBOL INV 224 80 R0
SYMATTR InstName X9
