Version 4
SHEET 1 2644 1604
WIRE -208 1056 -528 1056
WIRE 96 1136 80 1136
WIRE 224 1136 192 1136
WIRE 384 1152 368 1152
WIRE 512 1152 480 1152
WIRE 96 1168 80 1168
WIRE 240 1168 192 1168
WIRE -528 1184 -528 1056
WIRE 384 1184 368 1184
WIRE 528 1184 480 1184
WIRE 96 1200 80 1200
WIRE 256 1200 192 1200
WIRE 384 1216 368 1216
WIRE 544 1216 480 1216
WIRE 96 1232 80 1232
WIRE 272 1232 192 1232
WIRE 384 1248 368 1248
WIRE 560 1248 480 1248
WIRE -624 1264 -624 1232
WIRE 96 1280 80 1280
WIRE 384 1296 368 1296
WIRE 96 1312 80 1312
WIRE 384 1328 368 1328
WIRE 96 1344 80 1344
WIRE -624 1360 -624 1344
WIRE 384 1360 368 1360
WIRE -528 1376 -528 1184
WIRE 96 1376 80 1376
WIRE 384 1392 368 1392
WIRE 96 1424 48 1424
WIRE 48 1440 48 1424
WIRE 384 1440 336 1440
WIRE 336 1456 336 1440
WIRE 96 1472 64 1472
WIRE 208 1472 192 1472
WIRE -208 1488 -208 1056
WIRE 64 1488 64 1472
WIRE 64 1488 -208 1488
WIRE 384 1488 352 1488
WIRE 496 1488 480 1488
WIRE 208 1520 208 1472
WIRE 352 1520 352 1488
WIRE 352 1520 208 1520
WIRE 496 1536 496 1488
WIRE 608 1536 496 1536
WIRE 224 1584 224 1136
WIRE 240 1584 240 1168
WIRE 256 1584 256 1200
WIRE 272 1584 272 1232
WIRE 512 1600 512 1152
WIRE 528 1600 528 1184
WIRE 544 1600 544 1216
WIRE 560 1600 560 1248
FLAG -624 1440 0
FLAG -624 1232 +
FLAG -528 1456 0
FLAG -528 1184 A
FLAG 112 1104 +
FLAG 80 1232 +
FLAG 80 1200 +
FLAG 80 1168 0
FLAG 80 1136 0
FLAG 80 1344 0
FLAG 80 1376 0
FLAG 80 1312 +
FLAG 80 1280 +
FLAG 48 1440 0
FLAG 400 1120 +
FLAG 368 1248 +
FLAG 368 1216 +
FLAG 368 1184 0
FLAG 368 1152 0
FLAG 368 1360 0
FLAG 368 1392 0
FLAG 368 1328 +
FLAG 368 1296 +
FLAG 336 1456 0
SYMBOL voltage -624 1344 R0
SYMATTR InstName V1
SYMATTR Value 3
SYMATTR SpiceLine Rser=0
SYMBOL res -640 1248 R0
SYMATTR InstName R1
SYMATTR Value 20
SYMBOL voltage -528 1360 R0
WINDOW 3 -216 138 Left 2
SYMATTR Value PULSE(0.1 2.9 10m 100n 100n 20m 40m 1)
SYMATTR InstName V2
SYMBOL AddSub 144 1280 R0
SYMATTR InstName X1
SYMBOL AddSub 432 1296 R0
SYMATTR InstName X2
TEXT -664 944 Left 2 !.tran 50m
